omf/scratch/CIGAR/test_medium-R4-12.47-1.glm_CLEAN.glm
clock {
	timezone EST+8EDT;
	starttime '2009-01-01 12:00:00';
	stoptime '2009-01-01 12:15:00';
};

#set profiler=1module assert;
module tape;
module powerflow {
	solver_method NR;
	default_maximum_voltage_error 1e-9;
};

object regulator {
	phases ABCN;
	from R4-12-47-1_node_572;
	name R4-12-47-1_reg_1;
	to R4-12-47-1_meter_76;
	configuration feeder_reg_cfg;
};

object regulator_configuration {
	Control OUTPUT_VOLTAGE;
	raise_taps 16;
	name feeder_reg_cfg;
	band_center 7967.0;
	tap_pos_A 0;
	tap_pos_B 0;
	connect_type WYE_WYE;
	time_delay 30;
	regulation 0.10;
	lower_taps 16;
	tap_pos_C 0;
	band_width 133;
};

object capacitor {
	control VOLT;
	phases ABCN;
	capacitor_A 0.1 MVAr;
	name R4-12-47-1_cap_1;
	parent R4-12-47-1_node_532;
	capacitor_C 0.1 MVAr;
	capacitor_B 0.1 MVAr;
	pt_phase B;
	time_delay 30.0;
	nominal_voltage 7967.43;
	cap_nominal_voltage 7970;
	voltage_set_low 7100;
	control_level INDIVIDUAL;
	phases_connected ABC;
	dwell_time 30.0;
	voltage_set_high 7300;
};

object capacitor {
	control VOLT;
	phases ABCN;
	capacitor_A 0.3 MVAr;
	name R4-12-47-1_cap_2;
	parent R4-12-47-1_node_533;
	capacitor_C 0.3 MVAr;
	capacitor_B 0.3 MVAr;
	pt_phase B;
	time_delay 30.0;
	nominal_voltage 7967.43;
	cap_nominal_voltage 7970;
	voltage_set_low 7100;
	control_level INDIVIDUAL;
	phases_connected ABC;
	dwell_time 30.0;
	voltage_set_high 7300;
};

object recorder {
	interval 60;
	name R4-12-47-1_cap_2recorder8;
	parent R4-12-47-1_cap_2;
	limit 144;
	file R4-12.47-1_capacitor2.csv;
	property "switchA,switchB,switchC,voltage_A.real,voltage_A.imag,voltage_B.real,voltage_B.imag,voltage_C.real,voltage_C.imag";
};

object fuse {
	status CLOSED;
	phases CN;
	from R4-12-47-1_node_515;
	name R4-12-47-1_fuse_1;
	current_limit 100;
	to R4-12-47-1_node_2;
};

object fuse {
	status CLOSED;
	phases CN;
	from R4-12-47-1_node_7;
	name R4-12-47-1_fuse_2;
	current_limit 100;
	to R4-12-47-1_node_6;
};

object fuse {
	status CLOSED;
	phases CN;
	from R4-12-47-1_node_499;
	name R4-12-47-1_fuse_3;
	current_limit 40;
	to R4-12-47-1_node_29;
};

object fuse {
	status CLOSED;
	phases ABCN;
	from R4-12-47-1_node_40;
	name R4-12-47-1_fuse_4;
	current_limit 100;
	to R4-12-47-1_node_39;
};

object fuse {
	status CLOSED;
	phases AN;
	from R4-12-47-1_node_49;
	name R4-12-47-1_fuse_5;
	current_limit 60;
	to R4-12-47-1_node_54;
};

object fuse {
	status CLOSED;
	phases AN;
	from R4-12-47-1_node_55;
	name R4-12-47-1_fuse_6;
	current_limit 60;
	to R4-12-47-1_node_60;
};

object fuse {
	status CLOSED;
	phases BN;
	from R4-12-47-1_node_62;
	name R4-12-47-1_fuse_7;
	current_limit 60;
	to R4-12-47-1_node_63;
};

object fuse {
	status CLOSED;
	phases CN;
	from R4-12-47-1_node_56;
	name R4-12-47-1_fuse_8;
	current_limit 60;
	to R4-12-47-1_node_64;
};

object fuse {
	status CLOSED;
	phases CN;
	from R4-12-47-1_node_71;
	name R4-12-47-1_fuse_9;
	current_limit 40;
	to R4-12-47-1_node_72;
};

object fuse {
	status CLOSED;
	phases BN;
	from R4-12-47-1_node_78;
	name R4-12-47-1_fuse_10;
	current_limit 60;
	to R4-12-47-1_node_77;
};

object fuse {
	status CLOSED;
	phases ACN;
	from R4-12-47-1_node_510;
	name R4-12-47-1_fuse_11;
	current_limit 40;
	to R4-12-47-1_node_85;
};

object fuse {
	status CLOSED;
	phases BN;
	from R4-12-47-1_node_89;
	name R4-12-47-1_fuse_12;
	current_limit 30;
	to R4-12-47-1_node_88;
};

object fuse {
	status CLOSED;
	phases BN;
	from R4-12-47-1_node_105;
	name R4-12-47-1_fuse_13;
	current_limit 40;
	to R4-12-47-1_node_92;
};

object fuse {
	status CLOSED;
	phases CN;
	from R4-12-47-1_node_111;
	name R4-12-47-1_fuse_14;
	current_limit 40;
	to R4-12-47-1_node_112;
};

object fuse {
	status CLOSED;
	phases BN;
	from R4-12-47-1_node_115;
	name R4-12-47-1_fuse_15;
	current_limit 15;
	to R4-12-47-1_node_116;
};

object fuse {
	status CLOSED;
	phases BN;
	from R4-12-47-1_node_119;
	name R4-12-47-1_fuse_16;
	current_limit 50;
	to R4-12-47-1_node_120;
};

object fuse {
	status CLOSED;
	phases ACN;
	from R4-12-47-1_node_494;
	name R4-12-47-1_fuse_17;
	current_limit 40;
	to R4-12-47-1_node_122;
};

object fuse {
	status CLOSED;
	phases AN;
	from R4-12-47-1_node_127;
	name R4-12-47-1_fuse_18;
	current_limit 60;
	to R4-12-47-1_node_128;
};

object fuse {
	status CLOSED;
	phases AN;
	from R4-12-47-1_node_41;
	name R4-12-47-1_fuse_19;
	current_limit 60;
	to R4-12-47-1_node_129;
};

object fuse {
	status CLOSED;
	phases CN;
	from R4-12-47-1_node_504;
	name R4-12-47-1_fuse_20;
	current_limit 15;
	to R4-12-47-1_node_133;
};

object fuse {
	status CLOSED;
	phases BN;
	from R4-12-47-1_node_560;
	name R4-12-47-1_fuse_21;
	current_limit 60;
	to R4-12-47-1_node_140;
};

object fuse {
	status CLOSED;
	phases AN;
	from R4-12-47-1_node_144;
	name R4-12-47-1_fuse_22;
	current_limit 60;
	to R4-12-47-1_node_143;
};

object fuse {
	status CLOSED;
	phases BN;
	from R4-12-47-1_node_149;
	name R4-12-47-1_fuse_23;
	current_limit 60;
	to R4-12-47-1_node_148;
};

object fuse {
	status CLOSED;
	phases CN;
	from R4-12-47-1_node_151;
	name R4-12-47-1_fuse_24;
	current_limit 60;
	to R4-12-47-1_node_152;
};

object fuse {
	status CLOSED;
	phases CN;
	from R4-12-47-1_node_150;
	name R4-12-47-1_fuse_25;
	current_limit 60;
	to R4-12-47-1_node_153;
};

object fuse {
	status CLOSED;
	phases BN;
	from R4-12-47-1_node_164;
	name R4-12-47-1_fuse_26;
	current_limit 15;
	to R4-12-47-1_node_165;
};

object fuse {
	status CLOSED;
	phases AN;
	from R4-12-47-1_node_168;
	name R4-12-47-1_fuse_27;
	current_limit 40;
	to R4-12-47-1_node_167;
};

object fuse {
	status CLOSED;
	phases AN;
	from R4-12-47-1_node_171;
	name R4-12-47-1_fuse_28;
	current_limit 40;
	to R4-12-47-1_node_172;
};

object fuse {
	status CLOSED;
	phases AN;
	from R4-12-47-1_node_174;
	name R4-12-47-1_fuse_29;
	current_limit 25;
	to R4-12-47-1_node_173;
};

object fuse {
	status CLOSED;
	phases AN;
	from R4-12-47-1_node_176;
	name R4-12-47-1_fuse_30;
	current_limit 25;
	to R4-12-47-1_node_177;
};

object fuse {
	status CLOSED;
	phases BN;
	from R4-12-47-1_node_489;
	name R4-12-47-1_fuse_31;
	current_limit 100;
	to R4-12-47-1_node_183;
};

object fuse {
	status CLOSED;
	phases ABN;
	from R4-12-47-1_node_491;
	name R4-12-47-1_fuse_32;
	current_limit 60;
	to R4-12-47-1_node_187;
};

object fuse {
	status CLOSED;
	phases BCN;
	from R4-12-47-1_node_495;
	name R4-12-47-1_fuse_33;
	current_limit 40;
	to R4-12-47-1_node_201;
};

object fuse {
	status CLOSED;
	phases BN;
	from R4-12-47-1_node_497;
	name R4-12-47-1_fuse_34;
	current_limit 40;
	to R4-12-47-1_node_206;
};

object fuse {
	status CLOSED;
	phases ABN;
	from R4-12-47-1_node_500;
	name R4-12-47-1_fuse_35;
	current_limit 40;
	to R4-12-47-1_node_216;
};

object fuse {
	status CLOSED;
	phases AN;
	from R4-12-47-1_node_502;
	name R4-12-47-1_fuse_36;
	current_limit 40;
	to R4-12-47-1_node_220;
};

object fuse {
	status CLOSED;
	phases ABCN;
	from R4-12-47-1_node_503;
	name R4-12-47-1_fuse_37;
	current_limit 40;
	to R4-12-47-1_node_223;
};

object fuse {
	status CLOSED;
	phases CN;
	from R4-12-47-1_node_511;
	name R4-12-47-1_fuse_38;
	current_limit 40;
	to R4-12-47-1_node_240;
};

object fuse {
	status CLOSED;
	phases BN;
	from R4-12-47-1_node_512;
	name R4-12-47-1_fuse_39;
	current_limit 100;
	to R4-12-47-1_node_250;
};

object fuse {
	status CLOSED;
	phases BN;
	from R4-12-47-1_node_16;
	name R4-12-47-1_fuse_40;
	current_limit 100;
	to R4-12-47-1_node_253;
};

object fuse {
	status CLOSED;
	phases CN;
	from R4-12-47-1_node_513;
	name R4-12-47-1_fuse_41;
	current_limit 100;
	to R4-12-47-1_node_255;
};

object fuse {
	status CLOSED;
	phases BN;
	from R4-12-47-1_node_514;
	name R4-12-47-1_fuse_42;
	current_limit 100;
	to R4-12-47-1_node_257;
};

object fuse {
	status CLOSED;
	phases CN;
	from R4-12-47-1_node_516;
	name R4-12-47-1_fuse_43;
	current_limit 100;
	to R4-12-47-1_node_268;
};

object fuse {
	status CLOSED;
	phases CN;
	from R4-12-47-1_node_519;
	name R4-12-47-1_fuse_44;
	current_limit 60;
	to R4-12-47-1_node_277;
};

object fuse {
	status CLOSED;
	phases CN;
	from R4-12-47-1_node_521;
	name R4-12-47-1_fuse_45;
	current_limit 100;
	to R4-12-47-1_node_290;
};

object fuse {
	status CLOSED;
	phases CN;
	from R4-12-47-1_node_526;
	name R4-12-47-1_fuse_46;
	current_limit 60;
	to R4-12-47-1_node_314;
};

object fuse {
	status CLOSED;
	phases ABCN;
	from R4-12-47-1_node_4;
	name R4-12-47-1_fuse_47;
	current_limit 100;
	to R4-12-47-1_node_337;
};

object fuse {
	status CLOSED;
	phases AN;
	from R4-12-47-1_node_527;
	name R4-12-47-1_fuse_48;
	current_limit 60;
	to R4-12-47-1_node_338;
};

object fuse {
	status CLOSED;
	phases AN;
	from R4-12-47-1_node_530;
	name R4-12-47-1_fuse_49;
	current_limit 100;
	to R4-12-47-1_node_346;
};

object fuse {
	status CLOSED;
	phases BN;
	from R4-12-47-1_node_531;
	name R4-12-47-1_fuse_50;
	current_limit 100;
	to R4-12-47-1_node_359;
};

object fuse {
	status CLOSED;
	phases AN;
	from R4-12-47-1_node_69;
	name R4-12-47-1_fuse_51;
	current_limit 60;
	to R4-12-47-1_node_376;
};

object fuse {
	status CLOSED;
	phases AN;
	from R4-12-47-1_node_490;
	name R4-12-47-1_fuse_52;
	current_limit 40;
	to R4-12-47-1_node_388;
};

object fuse {
	status CLOSED;
	phases ABN;
	from R4-12-47-1_node_492;
	name R4-12-47-1_fuse_53;
	current_limit 100;
	to R4-12-47-1_node_393;
};

object fuse {
	status CLOSED;
	phases BN;
	from R4-12-47-1_node_20;
	name R4-12-47-1_fuse_54;
	current_limit 40;
	to R4-12-47-1_node_397;
};

object fuse {
	status CLOSED;
	phases CN;
	from R4-12-47-1_node_496;
	name R4-12-47-1_fuse_55;
	current_limit 40;
	to R4-12-47-1_node_403;
};

object fuse {
	status CLOSED;
	phases CN;
	from R4-12-47-1_node_498;
	name R4-12-47-1_fuse_56;
	current_limit 40;
	to R4-12-47-1_node_406;
};

object fuse {
	status CLOSED;
	phases BN;
	from R4-12-47-1_node_1;
	name R4-12-47-1_fuse_57;
	current_limit 40;
	to R4-12-47-1_node_409;
};

object fuse {
	status CLOSED;
	phases BN;
	from R4-12-47-1_node_509;
	name R4-12-47-1_fuse_58;
	current_limit 40;
	to R4-12-47-1_node_411;
};

object fuse {
	status CLOSED;
	phases CN;
	from R4-12-47-1_node_15;
	name R4-12-47-1_fuse_59;
	current_limit 100;
	to R4-12-47-1_node_413;
};

object fuse {
	status CLOSED;
	phases CN;
	from R4-12-47-1_node_110;
	name R4-12-47-1_fuse_60;
	current_limit 50;
	to R4-12-47-1_node_419;
};

object fuse {
	status CLOSED;
	phases ABCN;
	from R4-12-47-1_node_3;
	name R4-12-47-1_fuse_61;
	current_limit 100;
	to R4-12-47-1_node_429;
};

object fuse {
	status CLOSED;
	phases AN;
	from R4-12-47-1_node_520;
	name R4-12-47-1_fuse_62;
	current_limit 100;
	to R4-12-47-1_node_435;
};

object fuse {
	status CLOSED;
	phases ACN;
	from R4-12-47-1_node_522;
	name R4-12-47-1_fuse_63;
	current_limit 100;
	to R4-12-47-1_node_437;
};

object fuse {
	status CLOSED;
	phases BN;
	from R4-12-47-1_node_523;
	name R4-12-47-1_fuse_64;
	current_limit 60;
	to R4-12-47-1_node_445;
};

object fuse {
	status CLOSED;
	phases CN;
	from R4-12-47-1_node_524;
	name R4-12-47-1_fuse_65;
	current_limit 60;
	to R4-12-47-1_node_446;
};

object fuse {
	status CLOSED;
	phases AN;
	from R4-12-47-1_node_525;
	name R4-12-47-1_fuse_66;
	current_limit 60;
	to R4-12-47-1_node_449;
};

object fuse {
	status CLOSED;
	phases CN;
	from R4-12-47-1_node_505;
	name R4-12-47-1_fuse_67;
	current_limit 40;
	to R4-12-47-1_node_506;
};

object fuse {
	status CLOSED;
	phases CN;
	from R4-12-47-1_node_506;
	name R4-12-47-1_fuse_68;
	current_limit 15;
	to R4-12-47-1_node_534;
};

object fuse {
	status CLOSED;
	phases CN;
	from R4-12-47-1_node_507;
	name R4-12-47-1_fuse_69;
	current_limit 25;
	to R4-12-47-1_node_535;
};

object fuse {
	status CLOSED;
	phases AN;
	from R4-12-47-1_node_508;
	name R4-12-47-1_fuse_70;
	current_limit 40;
	to R4-12-47-1_node_536;
};

object fuse {
	status CLOSED;
	phases ABCN;
	from R4-12-47-1_node_517;
	name R4-12-47-1_fuse_71;
	current_limit 15;
	to R4-12-47-1_node_537;
};

object fuse {
	status CLOSED;
	phases BN;
	from R4-12-47-1_node_529;
	name R4-12-47-1_fuse_72;
	current_limit 30;
	to R4-12-47-1_node_538;
};

object fuse {
	status CLOSED;
	phases BN;
	from R4-12-47-1_node_487;
	name R4-12-47-1_fuse_73;
	current_limit 60;
	to R4-12-47-1_node_539;
};

object fuse {
	status CLOSED;
	phases BN;
	from R4-12-47-1_node_528;
	name R4-12-47-1_fuse_74;
	current_limit 60;
	to R4-12-47-1_node_540;
};

object fuse {
	status CLOSED;
	phases AN;
	from R4-12-47-1_node_548;
	name R4-12-47-1_fuse_75;
	current_limit 40;
	to R4-12-47-1_node_549;
};

object fuse {
	status CLOSED;
	phases CN;
	from R4-12-47-1_node_556;
	name R4-12-47-1_fuse_76;
	current_limit 40;
	to R4-12-47-1_node_554;
};

object fuse {
	status CLOSED;
	phases CN;
	from R4-12-47-1_node_558;
	name R4-12-47-1_fuse_77;
	current_limit 25;
	to R4-12-47-1_node_559;
};

object fuse {
	status CLOSED;
	phases BN;
	from R4-12-47-1_node_43;
	name R4-12-47-1_fuse_78;
	current_limit 100;
	to R4-12-47-1_node_563;
};

object fuse {
	status CLOSED;
	phases BN;
	from R4-12-47-1_node_564;
	name R4-12-47-1_fuse_79;
	current_limit 15;
	to R4-12-47-1_node_565;
};

object line_configuration {
	conductor_N overhead_line_conductor_2;
	spacing line_spacing_8;
	name line_configuration_21;
	conductor_B overhead_line_conductor_2;
};

object line_configuration {
	conductor_N overhead_line_conductor_2;
	spacing line_spacing_9;
	name line_configuration_22;
	conductor_C overhead_line_conductor_2;
};

object line_configuration {
	name line_configuration_23;
	spacing line_spacing_10;
	conductor_N overhead_line_conductor_3;
	conductor_A overhead_line_conductor_3;
	conductor_C overhead_line_conductor_3;
	conductor_B overhead_line_conductor_3;
};

object line_configuration {
	name line_configuration_24;
	spacing line_spacing_10;
	conductor_N overhead_line_conductor_3;
	conductor_A overhead_line_conductor_3;
	conductor_C overhead_line_conductor_3;
	conductor_B overhead_line_conductor_3;
};

object line_configuration {
	name line_configuration_25;
	spacing line_spacing_10;
	conductor_N overhead_line_conductor_4;
	conductor_A overhead_line_conductor_4;
	conductor_C overhead_line_conductor_4;
	conductor_B overhead_line_conductor_4;
};

object line_configuration {
	name line_configuration_26;
	spacing line_spacing_10;
	conductor_N overhead_line_conductor_5;
	conductor_A overhead_line_conductor_5;
	conductor_C overhead_line_conductor_5;
	conductor_B overhead_line_conductor_5;
};

object line_configuration {
	name line_configuration_27;
	spacing line_spacing_10;
	conductor_N overhead_line_conductor_5;
	conductor_A overhead_line_conductor_5;
	conductor_C overhead_line_conductor_5;
	conductor_B overhead_line_conductor_5;
};

object line_configuration {
	conductor_N overhead_line_conductor_2;
	spacing line_spacing_11;
	conductor_A overhead_line_conductor_2;
	name line_configuration_28;
};

object line_configuration {
	name line_configuration_29;
	spacing line_spacing_12;
	conductor_N overhead_line_conductor_3;
	conductor_A overhead_line_conductor_3;
	conductor_C overhead_line_conductor_3;
};

object line_configuration {
	name line_configuration_30;
	spacing line_spacing_10;
	conductor_N overhead_line_conductor_6;
	conductor_A overhead_line_conductor_6;
	conductor_C overhead_line_conductor_6;
	conductor_B overhead_line_conductor_6;
};

object line_configuration {
	name line_configuration_31;
	spacing line_spacing_13;
	conductor_N overhead_line_conductor_2;
	conductor_A overhead_line_conductor_2;
	conductor_B overhead_line_conductor_2;
};

object line_configuration {
	name line_configuration_32;
	spacing line_spacing_10;
	conductor_N overhead_line_conductor_2;
	conductor_A overhead_line_conductor_2;
	conductor_C overhead_line_conductor_2;
	conductor_B overhead_line_conductor_2;
};

object line_configuration {
	name line_configuration_33;
	spacing line_spacing_12;
	conductor_N overhead_line_conductor_2;
	conductor_A overhead_line_conductor_2;
	conductor_C overhead_line_conductor_2;
};

object line_configuration {
	conductor_N underground_line_conductor_7;
	spacing line_spacing_14;
	conductor_A underground_line_conductor_7;
	name line_configuration_34;
};

object line_configuration {
	name line_configuration_35;
	spacing line_spacing_15;
	conductor_N overhead_line_conductor_2;
	conductor_C overhead_line_conductor_2;
	conductor_B overhead_line_conductor_2;
};

object line_configuration {
	conductor_N underground_line_conductor_7;
	spacing line_spacing_16;
	name line_configuration_36;
	conductor_C underground_line_conductor_7;
};

object line_configuration {
	conductor_N underground_line_conductor_7;
	spacing line_spacing_17;
	name line_configuration_37;
	conductor_B underground_line_conductor_7;
};

object line_configuration {
	conductor_N overhead_line_conductor_3;
	spacing line_spacing_8;
	name line_configuration_38;
	conductor_B overhead_line_conductor_3;
};

object line_configuration {
	conductor_N overhead_line_conductor_3;
	spacing line_spacing_9;
	name line_configuration_39;
	conductor_C overhead_line_conductor_3;
};

object line_configuration {
	name line_configuration_40;
	spacing line_spacing_10;
	conductor_N overhead_line_conductor_4;
	conductor_A overhead_line_conductor_4;
	conductor_C overhead_line_conductor_4;
	conductor_B overhead_line_conductor_4;
};

object line_configuration {
	name line_configuration_41;
	spacing line_spacing_13;
	conductor_N overhead_line_conductor_3;
	conductor_A overhead_line_conductor_3;
	conductor_B overhead_line_conductor_3;
};

object line_configuration {
	conductor_N overhead_line_conductor_2;
	spacing line_spacing_11;
	conductor_A overhead_line_conductor_2;
	name line_configuration_42;
};

object line_configuration {
	name line_configuration_43;
	spacing line_spacing_18;
	conductor_N overhead_line_conductor_2;
	conductor_C overhead_line_conductor_2;
	conductor_B overhead_line_conductor_2;
};

object line_configuration {
	name line_configuration_44;
	spacing line_spacing_10;
	conductor_N overhead_line_conductor_2;
	conductor_A overhead_line_conductor_2;
	conductor_C overhead_line_conductor_2;
	conductor_B overhead_line_conductor_2;
};

object line_configuration {
	conductor_N overhead_line_conductor_2;
	spacing line_spacing_9;
	name line_configuration_45;
	conductor_C overhead_line_conductor_2;
};

object line_configuration {
	conductor_N overhead_line_conductor_3;
	spacing line_spacing_11;
	conductor_A overhead_line_conductor_3;
	name line_configuration_46;
};

object line_configuration {
	name line_configuration_47;
	spacing line_spacing_19;
	conductor_N underground_line_conductor_7;
	conductor_A underground_line_conductor_7;
	conductor_C underground_line_conductor_7;
	conductor_B underground_line_conductor_7;
};

object line_configuration {
	name line_configuration_48;
	spacing line_spacing_20;
	conductor_N overhead_line_conductor_3;
	conductor_A overhead_line_conductor_3;
	conductor_C overhead_line_conductor_3;
	conductor_B overhead_line_conductor_3;
};

object line_configuration {
	name line_configuration_49;
	spacing line_spacing_15;
	conductor_N overhead_line_conductor_2;
	conductor_C overhead_line_conductor_2;
	conductor_B overhead_line_conductor_2;
};

object line_spacing {
	name line_spacing_8;
	distance_BN 69.99999999996 in;
};

object line_spacing {
	distance_CN 69.99999999996 in;
	name line_spacing_9;
};

object line_spacing {
	distance_BC 53.19999999996 in;
	name line_spacing_10;
	distance_CN 80.49999999996 in;
	distance_AN 80.49999999996 in;
	distance_AB 53.19999999996 in;
	distance_BN 80.49999999996 in;
	distance_AC 53.19999999996 in;
};

object line_spacing {
	distance_AN 69.99999999996 in;
	name line_spacing_11;
};

object line_spacing {
	distance_CN 19.2 in;
	distance_AN 19.2 in;
	name line_spacing_12;
	distance_AC 87.99999999996 in;
};

object line_spacing {
	distance_AN 19.2 in;
	name line_spacing_13;
	distance_AB 87.99999999996 in;
	distance_BN 19.2 in;
};

object line_spacing {
	distance_AN 360.0 in;
	name line_spacing_14;
};

object line_spacing {
	distance_CN 19.2 in;
	distance_BC 87.99999999996 in;
	name line_spacing_15;
	distance_BN 19.2 in;
};

object line_spacing {
	distance_CN 360.0 in;
	name line_spacing_16;
};

object line_spacing {
	name line_spacing_17;
	distance_BN 360.0 in;
};

object line_spacing {
	distance_CN 20.79999999996 in;
	distance_BC 48.0 in;
	name line_spacing_18;
	distance_BN 20.79999999996 in;
};

object line_spacing {
	distance_BC 12.0 in;
	name line_spacing_19;
	distance_CN 360.0 in;
	distance_AN 360.0 in;
	distance_AB 12.0 in;
	distance_BN 360.0 in;
	distance_AC 12.0 in;
};

object line_spacing {
	distance_BC 60.50000000004 in;
	name line_spacing_20;
	distance_CN 114.99999999996 in;
	distance_AN 114.99999999996 in;
	distance_AB 60.50000000004 in;
	distance_BN 114.99999999996 in;
	distance_AC 60.50000000004 in;
};

object load {
	phases CN;
	load_class C;
	name R4-12-47-1_load_1;
	parent R4-12-47-1_meter_1;
	voltage_C -3983.72+6900j;
	constant_power_C 270.717162+138.230028j;
	nominal_voltage 7967.43;
};

object load {
	phases ABCN;
	load_class C;
	name R4-12-47-1_load_2;
	parent R4-12-47-1_meter_2;
	voltage_B -3983.72-6900j;
	voltage_C -3983.72+6900j;
	voltage_A 7967.43+0.0j;
	constant_power_C 11279.8818+5759.5844j;
	constant_power_B 0+0j;
	constant_power_A 11108.1724+5787.4574j;
	nominal_voltage 7967.43;
};

object load {
	phases ABCN;
	load_class C;
	name R4-12-47-1_load_3;
	parent R4-12-47-1_meter_3;
	voltage_B -3983.72-6900j;
	voltage_C -3983.72+6900j;
	voltage_A 7967.43+0.0j;
	constant_power_C 0+0j;
	constant_power_B 0+0j;
	constant_power_A 6664.9035+3472.4745j;
	nominal_voltage 7967.43;
};

object load {
	phases ABCN;
	load_class C;
	name R4-12-47-1_load_4;
	parent R4-12-47-1_meter_4;
	voltage_B -3983.72-6900j;
	voltage_C -3983.72+6900j;
	voltage_A 7967.43+0.0j;
	constant_power_C 4511.9527+2303.8338j;
	constant_power_B 0+0j;
	constant_power_A 22216.3449+11574.9148j;
	nominal_voltage 7967.43;
};

object load {
	phases ABCN;
	load_class C;
	name R4-12-47-1_load_5;
	parent R4-12-47-1_meter_5;
	voltage_B -3983.72-6900j;
	voltage_C -3983.72+6900j;
	voltage_A 7967.43+0.0j;
	constant_power_C 75349.6104+38474.024j;
	constant_power_B 61610.3216+33216.6484j;
	constant_power_A 74202.5918+38660.2156j;
	nominal_voltage 7967.43;
};

object load {
	phases ABN;
	load_class C;
	name R4-12-47-1_load_6;
	parent R4-12-47-1_meter_6;
	voltage_B -3983.72-6900j;
	voltage_A 7967.43+0.0j;
	nominal_voltage 7967.43;
	constant_power_B 9223.102+4972.5522j;
	constant_power_A 11108.1724+5787.4574j;
};

object load {
	phases ABCN;
	load_class C;
	name R4-12-47-1_load_7;
	parent R4-12-47-1_meter_7;
	voltage_B -3983.72-6900j;
	voltage_C -3983.72+6900j;
	voltage_A 7967.43+0.0j;
	constant_power_C 0+0j;
	constant_power_B 1228.5171864+662.3439597j;
	constant_power_A 0+0j;
	nominal_voltage 7967.43;
};

object load {
	phases ABCN;
	load_class C;
	name R4-12-47-1_load_8;
	parent R4-12-47-1_meter_8;
	voltage_B -3983.72-6900j;
	voltage_C -3983.72+6900j;
	voltage_A 7967.43+0.0j;
	constant_power_C 22559.7636+11519.1689j;
	constant_power_B 18446.2041+9945.1043j;
	constant_power_A 22216.3449+11574.9148j;
	nominal_voltage 7967.43;
};

object load {
	phases ACN;
	load_class C;
	name R4-12-47-1_load_9;
	parent R4-12-47-1_meter_9;
	voltage_C -3983.72+6900j;
	voltage_A 7967.43+0.0j;
	constant_power_C 2571.813039+1313.185266j;
	constant_power_A 6331.658268+3298.850718j;
	nominal_voltage 7967.43;
};

object load {
	phases CN;
	load_class C;
	name R4-12-47-1_load_10;
	parent R4-12-47-1_meter_10;
	voltage_C -3983.72+6900j;
	constant_power_C 225.597635+115.19169j;
	nominal_voltage 7967.43;
};

object load {
	phases ABCN;
	load_class C;
	name R4-12-47-1_load_11;
	parent R4-12-47-1_meter_11;
	voltage_B -3983.72-6900j;
	voltage_C -3983.72+6900j;
	voltage_A 7967.43+0.0j;
	constant_power_C 0+0j;
	constant_power_B 9223.102+4972.5522j;
	constant_power_A 11108.1724+5787.4574j;
	nominal_voltage 7967.43;
};

object load {
	phases ACN;
	load_class C;
	name R4-12-47-1_load_12;
	parent R4-12-47-1_meter_12;
	voltage_C -3983.72+6900j;
	voltage_A 7967.43+0.0j;
	constant_power_C 22559.7636+11519.1689j;
	constant_power_A 22216.3449+11574.9148j;
	nominal_voltage 7967.43;
};

object load {
	phases CN;
	load_class C;
	name R4-12-47-1_load_13;
	parent R4-12-47-1_meter_13;
	voltage_C -3983.72+6900j;
	constant_power_C 11268.6019182+5753.8248489j;
	nominal_voltage 7967.43;
};

object load {
	phases BN;
	load_class C;
	name R4-12-47-1_load_14;
	parent R4-12-47-1_meter_14;
	voltage_B -3983.72-6900j;
	nominal_voltage 7967.43;
	constant_power_B 3071.292966+1655.8598826j;
};

object load {
	phases BN;
	load_class C;
	name R4-12-47-1_load_15;
	parent R4-12-47-1_meter_15;
	voltage_B -3983.72-6900j;
	nominal_voltage 7967.43;
	constant_power_B 3071.292966+1655.8598826j;
};

object load {
	phases AN;
	load_class C;
	name R4-12-47-1_load_16;
	parent R4-12-47-1_meter_16;
	voltage_A 7967.43+0.0j;
	nominal_voltage 7967.43;
	constant_power_A 7398.0428517+3854.4466284j;
};

object load {
	phases ABN;
	load_class C;
	name R4-12-47-1_load_17;
	parent R4-12-47-1_meter_17;
	voltage_B -3983.72-6900j;
	voltage_A 7967.43+0.0j;
	nominal_voltage 7967.43;
	constant_power_B 3071.292966+1655.8598826j;
	constant_power_A 3699.0214092+1927.2233142j;
};

object load {
	phases ABCN;
	load_class C;
	name R4-12-47-1_load_18;
	parent R4-12-47-1_meter_18;
	voltage_B -3983.72-6900j;
	voltage_C -3983.72+6900j;
	voltage_A 7967.43+0.0j;
	constant_power_C 0+0j;
	constant_power_B 9223.102+4972.5522j;
	constant_power_A 11108.1724+5787.4574j;
	nominal_voltage 7967.43;
};

object load {
	phases ABCN;
	load_class C;
	name R4-12-47-1_load_19;
	parent R4-12-47-1_meter_19;
	voltage_B -3983.72-6900j;
	voltage_C -3983.72+6900j;
	voltage_A 7967.43+0.0j;
	constant_power_C 15024.8025576+7671.7664541j;
	constant_power_B 12285.1719306+6623.4394638j;
	constant_power_A 14796.0856701+7708.8932901j;
	nominal_voltage 7967.43;
};

object load {
	phases BCN;
	load_class C;
	name R4-12-47-1_load_20;
	parent R4-12-47-1_meter_20;
	voltage_B -3983.72-6900j;
	voltage_C -3983.72+6900j;
	constant_power_C 33839.6454+17278.7533j;
	constant_power_B 27669.3061+14917.6565j;
	nominal_voltage 7967.43;
};

object load {
	phases BCN;
	load_class C;
	name R4-12-47-1_load_21;
	parent R4-12-47-1_meter_21;
	voltage_B -3983.72-6900j;
	voltage_C -3983.72+6900j;
	constant_power_C 2233.416603+1140.397731j;
	constant_power_B 0+0j;
	nominal_voltage 7967.43;
};

object load {
	phases BCN;
	load_class C;
	name R4-12-47-1_load_22;
	parent R4-12-47-1_meter_22;
	voltage_B -3983.72-6900j;
	voltage_C -3983.72+6900j;
	constant_power_C 11279.8818+5759.5844j;
	constant_power_B 9223.102+4972.5522j;
	nominal_voltage 7967.43;
};

object load {
	phases CN;
	load_class C;
	name R4-12-47-1_load_23;
	parent R4-12-47-1_meter_23;
	voltage_C -3983.72+6900j;
	constant_power_C 9587.89953+4895.64674j;
	nominal_voltage 7967.43;
};

object load {
	phases CN;
	load_class C;
	name R4-12-47-1_load_24;
	parent R4-12-47-1_meter_24;
	voltage_C -3983.72+6900j;
	constant_power_C 751.2401412+383.5883277j;
	nominal_voltage 7967.43;
};

object load {
	phases CN;
	load_class C;
	name R4-12-47-1_load_25;
	parent R4-12-47-1_meter_25;
	voltage_C -3983.72+6900j;
	constant_power_C 4511.9527+2303.8338j;
	nominal_voltage 7967.43;
};

object load {
	phases BCN;
	load_class C;
	name R4-12-47-1_load_26;
	parent R4-12-47-1_meter_26;
	voltage_B -3983.72-6900j;
	voltage_C -3983.72+6900j;
	constant_power_C 11279.8818+5759.5844j;
	constant_power_B 18446.2041+9945.1043j;
	nominal_voltage 7967.43;
};

object load {
	phases BN;
	load_class C;
	name R4-12-47-1_load_27;
	parent R4-12-47-1_meter_27;
	voltage_B -3983.72-6900j;
	nominal_voltage 7967.43;
	constant_power_B 3689.2408+1989.0209j;
};

object load {
	phases ABCN;
	load_class C;
	name R4-12-47-1_load_28;
	parent R4-12-47-1_meter_28;
	voltage_B -3983.72-6900j;
	voltage_C -3983.72+6900j;
	voltage_A 7967.43+0.0j;
	constant_power_C 11279.8818+5759.5844j;
	constant_power_B 0+0j;
	constant_power_A 11108.1724+5787.4574j;
	nominal_voltage 7967.43;
};

object load {
	phases ACN;
	load_class C;
	name R4-12-47-1_load_29;
	parent R4-12-47-1_meter_29;
	voltage_C -3983.72+6900j;
	voltage_A 7967.43+0.0j;
	constant_power_C 11279.8818+5759.5844j;
	constant_power_A 11108.1724+5787.4574j;
	nominal_voltage 7967.43;
};

object load {
	phases AN;
	load_class C;
	name R4-12-47-1_load_30;
	parent R4-12-47-1_meter_30;
	voltage_A 7967.43+0.0j;
	nominal_voltage 7967.43;
	constant_power_A 3699.0214092+1927.2233142j;
};

object load {
	phases ABCN;
	load_class C;
	name R4-12-47-1_load_31;
	parent R4-12-47-1_meter_31;
	voltage_B -3983.72-6900j;
	voltage_C -3983.72+6900j;
	voltage_A 7967.43+0.0j;
	constant_power_C 0+0j;
	constant_power_B 2065.974848+1113.851704j;
	constant_power_A 6220.576544+3240.976144j;
	nominal_voltage 7967.43;
};

object load {
	phases CN;
	load_class C;
	name R4-12-47-1_load_32;
	parent R4-12-47-1_meter_32;
	voltage_C -3983.72+6900j;
	constant_power_C 1353.58582+691.15014j;
	nominal_voltage 7967.43;
};

object load {
	phases CN;
	load_class C;
	name R4-12-47-1_load_33;
	parent R4-12-47-1_meter_33;
	voltage_C -3983.72+6900j;
	constant_power_C 2707.171632+1382.300268j;
	nominal_voltage 7967.43;
};

object load {
	phases ACN;
	load_class C;
	name R4-12-47-1_load_34;
	parent R4-12-47-1_meter_34;
	voltage_C -3983.72+6900j;
	voltage_A 7967.43+0.0j;
	constant_power_C 2932.769255+1497.49197j;
	constant_power_A 14440.624185+7523.69462j;
	nominal_voltage 7967.43;
};

object load {
	phases ABCN;
	load_class C;
	name R4-12-47-1_load_35;
	parent R4-12-47-1_meter_35;
	voltage_B -3983.72-6900j;
	voltage_C -3983.72+6900j;
	voltage_A 7967.43+0.0j;
	constant_power_C 7219.124352+3686.134048j;
	constant_power_B 0+0j;
	constant_power_A 0+0j;
	nominal_voltage 7967.43;
};

object load {
	phases CN;
	load_class C;
	name R4-12-47-1_load_36;
	parent R4-12-47-1_meter_36;
	voltage_C -3983.72+6900j;
	constant_power_C 7783.118442+3974.113236j;
	nominal_voltage 7967.43;
};

object load {
	phases CN;
	load_class C;
	name R4-12-47-1_load_37;
	parent R4-12-47-1_meter_37;
	voltage_C -3983.72+6900j;
	constant_power_C 169.198227+86.393766j;
	nominal_voltage 7967.43;
};

object load {
	phases CN;
	load_class C;
	name R4-12-47-1_load_38;
	parent R4-12-47-1_meter_38;
	voltage_C -3983.72+6900j;
	constant_power_C 4060.757448+2073.450384j;
	nominal_voltage 7967.43;
};

object load {
	phases ABCN;
	load_class C;
	name R4-12-47-1_load_39;
	parent R4-12-47-1_meter_39;
	voltage_B -3983.72-6900j;
	voltage_C -3983.72+6900j;
	voltage_A 7967.43+0.0j;
	constant_power_C 75349.6104+38474.024j;
	constant_power_B 61610.3216+33216.6484j;
	constant_power_A 74202.5918+38660.2156j;
	nominal_voltage 7967.43;
};

object load {
	phases BN;
	load_class C;
	name R4-12-47-1_load_40;
	parent R4-12-47-1_meter_40;
	voltage_B -3983.72-6900j;
	nominal_voltage 7967.43;
	constant_power_B 2490.237558+1342.589076j;
};

object load {
	phases ABCN;
	load_class C;
	name R4-12-47-1_load_41;
	parent R4-12-47-1_meter_41;
	voltage_B -3983.72-6900j;
	voltage_C -3983.72+6900j;
	voltage_A 7967.43+0.0j;
	constant_power_C 7895.91726+4031.70908j;
	constant_power_B 0+0j;
	constant_power_A 0+0j;
	nominal_voltage 7967.43;
};

object load {
	phases AN;
	load_class C;
	name R4-12-47-1_load_42;
	parent R4-12-47-1_meter_42;
	voltage_A 7967.43+0.0j;
	nominal_voltage 7967.43;
	constant_power_A 10663.845504+5555.959104j;
};

object load {
	phases AN;
	load_class C;
	name R4-12-47-1_load_43;
	parent R4-12-47-1_meter_43;
	voltage_A 7967.43+0.0j;
	nominal_voltage 7967.43;
	constant_power_A 11108.1724+5787.4574j;
};

object load {
	phases ABCN;
	load_class C;
	name R4-12-47-1_load_44;
	parent R4-12-47-1_meter_44;
	voltage_B -3983.72-6900j;
	voltage_C -3983.72+6900j;
	voltage_A 7967.43+0.0j;
	constant_power_C 3756.2006394+1917.9416052j;
	constant_power_B 0+0j;
	constant_power_A 0+0j;
	nominal_voltage 7967.43;
};

object load {
	phases BN;
	load_class C;
	name R4-12-47-1_load_45;
	parent R4-12-47-1_meter_45;
	voltage_B -3983.72-6900j;
	nominal_voltage 7967.43;
	constant_power_B 3689.2408+1989.0209j;
};

object load {
	phases CN;
	load_class C;
	name R4-12-47-1_load_46;
	parent R4-12-47-1_meter_46;
	voltage_C -3983.72+6900j;
	constant_power_C 2368.775178+1209.512724j;
	nominal_voltage 7967.43;
};

object load {
	phases ABCN;
	load_class C;
	name R4-12-47-1_load_47;
	parent R4-12-47-1_meter_47;
	voltage_B -3983.72-6900j;
	voltage_C -3983.72+6900j;
	voltage_A 7967.43+0.0j;
	constant_power_C 22559.7636+11519.1689j;
	constant_power_B 18446.2041+9945.1043j;
	constant_power_A 22216.3449+11574.9148j;
	nominal_voltage 7967.43;
};

object load {
	phases ABCN;
	load_class C;
	name R4-12-47-1_load_48;
	parent R4-12-47-1_meter_48;
	voltage_B -3983.72-6900j;
	voltage_C -3983.72+6900j;
	voltage_A 7967.43+0.0j;
	constant_power_C 22559.7636+11519.16885j;
	constant_power_B 30805.1608+16608.3242j;
	constant_power_A 22216.34485+11574.91485j;
	nominal_voltage 7967.43;
};

object load {
	phases ABCN;
	load_class C;
	name R4-12-47-1_load_49;
	parent R4-12-47-1_meter_49;
	voltage_B -3983.72-6900j;
	voltage_C -3983.72+6900j;
	voltage_A 7967.43+0.0j;
	constant_power_C 0+0j;
	constant_power_B 3689.2408+1989.0209j;
	constant_power_A 11108.1724+5787.4574j;
	nominal_voltage 7967.43;
};

object load {
	phases BCN;
	load_class C;
	name R4-12-47-1_load_50;
	parent R4-12-47-1_meter_50;
	voltage_B -3983.72-6900j;
	voltage_C -3983.72+6900j;
	constant_power_C 4511.9527+2303.8338j;
	constant_power_B 9223.102+4972.5522j;
	nominal_voltage 7967.43;
};

object load {
	phases BCN;
	load_class C;
	name R4-12-47-1_load_51;
	parent R4-12-47-1_meter_51;
	voltage_B -3983.72-6900j;
	voltage_C -3983.72+6900j;
	constant_power_C 4511.9527+2303.8338j;
	constant_power_B 9223.102+4972.5522j;
	nominal_voltage 7967.43;
};

object load {
	phases ABN;
	load_class C;
	name R4-12-47-1_load_52;
	parent R4-12-47-1_meter_52;
	voltage_B -3983.72-6900j;
	voltage_A 7967.43+0.0j;
	nominal_voltage 7967.43;
	constant_power_B 3689.2408+1989.0209j;
	constant_power_A 11108.1724+5787.4574j;
};

object load {
	phases ABCN;
	load_class C;
	name R4-12-47-1_load_53;
	parent R4-12-47-1_meter_53;
	voltage_B -3983.72-6900j;
	voltage_C -3983.72+6900j;
	voltage_A 7967.43+0.0j;
	constant_power_C 180.478108+92.153352j;
	constant_power_B 0+0j;
	constant_power_A 0+0j;
	nominal_voltage 7967.43;
};

object load {
	phases ABCN;
	load_class C;
	name R4-12-47-1_load_54;
	parent R4-12-47-1_meter_54;
	voltage_B -3983.72-6900j;
	voltage_C -3983.72+6900j;
	voltage_A 7967.43+0.0j;
	constant_power_C 3756.2006394+1917.9416052j;
	constant_power_B 3071.292966+1655.8598826j;
	constant_power_A 0+0j;
	nominal_voltage 7967.43;
};

object load {
	phases BN;
	load_class C;
	name R4-12-47-1_load_55;
	parent R4-12-47-1_meter_55;
	voltage_B -3983.72-6900j;
	nominal_voltage 7967.43;
	constant_power_B 3873.70284+2088.471924j;
};

object load {
	phases CN;
	load_class C;
	name R4-12-47-1_load_56;
	parent R4-12-47-1_meter_56;
	voltage_C -3983.72+6900j;
	constant_power_C 1502.4802491+767.1766554j;
	nominal_voltage 7967.43;
};

object load {
	phases ABCN;
	load_class C;
	name R4-12-47-1_load_57;
	parent R4-12-47-1_meter_57;
	voltage_B -3983.72-6900j;
	voltage_C -3983.72+6900j;
	voltage_A 7967.43+0.0j;
	constant_power_C 1502.4802491+767.1766554j;
	constant_power_B 0+0j;
	constant_power_A 0+0j;
	nominal_voltage 7967.43;
};

object load {
	phases ABCN;
	load_class C;
	name R4-12-47-1_load_58;
	parent R4-12-47-1_meter_58;
	voltage_B -3983.72-6900j;
	voltage_C -3983.72+6900j;
	voltage_A 7967.43+0.0j;
	constant_power_C 11279.8818+5759.5844j;
	constant_power_B 0+0j;
	constant_power_A 0+0j;
	nominal_voltage 7967.43;
};

object load {
	phases BN;
	load_class C;
	name R4-12-47-1_load_59;
	parent R4-12-47-1_meter_59;
	voltage_B -3983.72-6900j;
	nominal_voltage 7967.43;
	constant_power_B 9223.102+4972.5522j;
};

object load {
	phases AN;
	load_class C;
	name R4-12-47-1_load_60;
	parent R4-12-47-1_meter_60;
	voltage_A 7967.43+0.0j;
	nominal_voltage 7967.43;
	constant_power_A 1479.608577+770.889339j;
};

object load {
	phases CN;
	load_class C;
	name R4-12-47-1_load_61;
	parent R4-12-47-1_meter_61;
	voltage_C -3983.72+6900j;
	constant_power_C 6091.136172+3110.175603j;
	nominal_voltage 7967.43;
};

object load {
	phases AN;
	load_class C;
	name R4-12-47-1_load_62;
	parent R4-12-47-1_meter_62;
	voltage_A 7967.43+0.0j;
	nominal_voltage 7967.43;
	constant_power_A 222.163449+115.749148j;
};

object load {
	phases ABCN;
	load_class C;
	name R4-12-47-1_load_63;
	parent R4-12-47-1_meter_63;
	voltage_B -3983.72-6900j;
	voltage_C -3983.72+6900j;
	voltage_A 7967.43+0.0j;
	constant_power_C 1502.4802491+767.1766554j;
	constant_power_B 0+0j;
	constant_power_A 0+0j;
	nominal_voltage 7967.43;
};

object load {
	phases ABCN;
	load_class C;
	name R4-12-47-1_load_64;
	parent R4-12-47-1_meter_64;
	voltage_B -3983.72-6900j;
	voltage_C -3983.72+6900j;
	voltage_A 7967.43+0.0j;
	constant_power_C 22559.7636+11519.1689j;
	constant_power_B 18446.2041+9945.1043j;
	constant_power_A 22216.3449+11574.9148j;
	nominal_voltage 7967.43;
};

object load {
	phases ABCN;
	load_class C;
	name R4-12-47-1_load_65;
	parent R4-12-47-1_meter_65;
	voltage_B -3983.72-6900j;
	voltage_C -3983.72+6900j;
	voltage_A 7967.43+0.0j;
	constant_power_C 1502.4802491+767.1766554j;
	constant_power_B 0+0j;
	constant_power_A 0+0j;
	nominal_voltage 7967.43;
};

object load {
	phases BN;
	load_class C;
	name R4-12-47-1_load_66;
	parent R4-12-47-1_meter_66;
	voltage_B -3983.72-6900j;
	nominal_voltage 7967.43;
	constant_power_B 18446.2041+9945.1043j;
};

object load {
	phases BN;
	load_class C;
	name R4-12-47-1_load_67;
	parent R4-12-47-1_meter_67;
	voltage_B -3983.72-6900j;
	nominal_voltage 7967.43;
	constant_power_B 6142.5859653+3311.7197319j;
};

object load {
	phases BCN;
	load_class C;
	name R4-12-47-1_load_68;
	parent R4-12-47-1_meter_68;
	voltage_B -3983.72-6900j;
	voltage_C -3983.72+6900j;
	constant_power_C 11279.8818+5759.5844j;
	constant_power_B 9223.102+4972.5522j;
	nominal_voltage 7967.43;
};

object load {
	phases BN;
	load_class C;
	name R4-12-47-1_load_69;
	parent R4-12-47-1_meter_69;
	voltage_B -3983.72-6900j;
	nominal_voltage 7967.43;
	constant_power_B 3689.2408+1989.0209j;
};

object load {
	phases ABCN;
	load_class C;
	name R4-12-47-1_load_70;
	parent R4-12-47-1_meter_70;
	voltage_B -3983.72-6900j;
	voltage_C -3983.72+6900j;
	voltage_A 7967.43+0.0j;
	constant_power_C 0+0j;
	constant_power_B 3689.2408+1989.0209j;
	constant_power_A 0+0j;
	nominal_voltage 7967.43;
};

object load {
	phases ABN;
	load_class C;
	name R4-12-47-1_load_71;
	parent R4-12-47-1_meter_71;
	voltage_B -3983.72-6900j;
	voltage_A 7967.43+0.0j;
	nominal_voltage 7967.43;
	constant_power_B 9223.102+4972.5522j;
	constant_power_A 11108.1724+5787.4574j;
};

object load {
	phases CN;
	load_class C;
	name R4-12-47-1_load_72;
	parent R4-12-47-1_meter_72;
	voltage_C -3983.72+6900j;
	constant_power_C 112.798818+57.595844j;
	nominal_voltage 7967.43;
};

object load {
	phases AN;
	load_class C;
	name R4-12-47-1_load_73;
	parent R4-12-47-1_meter_73;
	voltage_A 7967.43+0.0j;
	nominal_voltage 7967.43;
	constant_power_A 5109.759304+2662.230404j;
};

object load {
	phases ABCN;
	load_class C;
	name R4-12-47-1_load_74;
	parent R4-12-47-1_meter_74;
	voltage_B -3983.72-6900j;
	voltage_C -3983.72+6900j;
	voltage_A 7967.43+0.0j;
	constant_power_C 22559.7636+11519.1689j;
	constant_power_B 18446.2041+9945.1043j;
	constant_power_A 22216.3449+11574.9148j;
	nominal_voltage 7967.43;
};

object load {
	phases CN;
	load_class C;
	name R4-12-47-1_load_75;
	parent R4-12-47-1_meter_75;
	voltage_C -3983.72+6900j;
	constant_power_C 451.195272+230.383378j;
	nominal_voltage 7967.43;
};

object meter {
	voltage_C -3983.72+6900j;
	phases CN;
	nominal_voltage 7967.43;
	name R4-12-47-1_meter_1;
};

object meter {
	phases ABCN;
	name R4-12-47-1_meter_2;
	voltage_B -3983.72-6900j;
	voltage_C -3983.72+6900j;
	voltage_A 7967.43+0.0j;
	nominal_voltage 7967.43;
};

object meter {
	phases ABCN;
	name R4-12-47-1_meter_3;
	voltage_B -3983.72-6900j;
	voltage_C -3983.72+6900j;
	voltage_A 7967.43+0.0j;
	nominal_voltage 7967.43;
};

object meter {
	phases ABCN;
	name R4-12-47-1_meter_4;
	voltage_B -3983.72-6900j;
	voltage_C -3983.72+6900j;
	voltage_A 7967.43+0.0j;
	nominal_voltage 7967.43;
};

object meter {
	phases ABCN;
	name R4-12-47-1_meter_5;
	voltage_B -3983.72-6900j;
	voltage_C -3983.72+6900j;
	voltage_A 7967.43+0.0j;
	nominal_voltage 7967.43;
};

object meter {
	phases ABN;
	name R4-12-47-1_meter_6;
	voltage_B -3983.72-6900j;
	voltage_A 7967.43+0.0j;
	nominal_voltage 7967.43;
};

object meter {
	phases ABCN;
	name R4-12-47-1_meter_7;
	voltage_B -3983.72-6900j;
	voltage_C -3983.72+6900j;
	voltage_A 7967.43+0.0j;
	nominal_voltage 7967.43;
};

object meter {
	phases ABCN;
	name R4-12-47-1_meter_8;
	voltage_B -3983.72-6900j;
	voltage_C -3983.72+6900j;
	voltage_A 7967.43+0.0j;
	nominal_voltage 7967.43;
};

object meter {
	phases ACN;
	name R4-12-47-1_meter_9;
	voltage_C -3983.72+6900j;
	voltage_A 7967.43+0.0j;
	nominal_voltage 7967.43;
};

object meter {
	phases CN;
	name R4-12-47-1_meter_10;
	voltage_C -3983.72+6900j;
	nominal_voltage 7967.43;
};

object meter {
	phases ABCN;
	name R4-12-47-1_meter_11;
	voltage_B -3983.72-6900j;
	voltage_C -3983.72+6900j;
	voltage_A 7967.43+0.0j;
	nominal_voltage 7967.43;
};

object meter {
	phases ACN;
	name R4-12-47-1_meter_12;
	voltage_C -3983.72+6900j;
	voltage_A 7967.43+0.0j;
	nominal_voltage 7967.43;
};

object meter {
	voltage_C -3983.72+6900j;
	phases CN;
	nominal_voltage 7967.43;
	name R4-12-47-1_meter_13;
};

object meter {
	voltage_B -3983.72-6900j;
	phases BN;
	nominal_voltage 7967.43;
	name R4-12-47-1_meter_14;
};

object meter {
	voltage_B -3983.72-6900j;
	phases BN;
	nominal_voltage 7967.43;
	name R4-12-47-1_meter_15;
};

object meter {
	phases AN;
	nominal_voltage 7967.43;
	name R4-12-47-1_meter_16;
	voltage_A 7967.43+0.0j;
};

object meter {
	phases ABN;
	name R4-12-47-1_meter_17;
	voltage_B -3983.72-6900j;
	voltage_A 7967.43+0.0j;
	nominal_voltage 7967.43;
};

object meter {
	phases ABCN;
	name R4-12-47-1_meter_18;
	voltage_B -3983.72-6900j;
	voltage_C -3983.72+6900j;
	voltage_A 7967.43+0.0j;
	nominal_voltage 7967.43;
};

object meter {
	phases ABCN;
	name R4-12-47-1_meter_19;
	voltage_B -3983.72-6900j;
	voltage_C -3983.72+6900j;
	voltage_A 7967.43+0.0j;
	nominal_voltage 7967.43;
};

object meter {
	phases BCN;
	name R4-12-47-1_meter_20;
	voltage_B -3983.72-6900j;
	voltage_C -3983.72+6900j;
	nominal_voltage 7967.43;
};

object meter {
	phases BCN;
	name R4-12-47-1_meter_21;
	voltage_B -3983.72-6900j;
	voltage_C -3983.72+6900j;
	nominal_voltage 7967.43;
};

object meter {
	phases BCN;
	name R4-12-47-1_meter_22;
	voltage_B -3983.72-6900j;
	voltage_C -3983.72+6900j;
	nominal_voltage 7967.43;
};

object meter {
	voltage_C -3983.72+6900j;
	phases CN;
	nominal_voltage 7967.43;
	name R4-12-47-1_meter_23;
};

object meter {
	voltage_C -3983.72+6900j;
	phases CN;
	nominal_voltage 7967.43;
	name R4-12-47-1_meter_24;
};

object meter {
	voltage_C -3983.72+6900j;
	phases CN;
	nominal_voltage 7967.43;
	name R4-12-47-1_meter_25;
};

object meter {
	phases BCN;
	name R4-12-47-1_meter_26;
	voltage_B -3983.72-6900j;
	voltage_C -3983.72+6900j;
	nominal_voltage 7967.43;
};

object meter {
	voltage_B -3983.72-6900j;
	phases BN;
	nominal_voltage 7967.43;
	name R4-12-47-1_meter_27;
};

object meter {
	phases ABCN;
	name R4-12-47-1_meter_28;
	voltage_B -3983.72-6900j;
	voltage_C -3983.72+6900j;
	voltage_A 7967.43+0.0j;
	nominal_voltage 7967.43;
};

object meter {
	phases ACN;
	name R4-12-47-1_meter_29;
	voltage_C -3983.72+6900j;
	voltage_A 7967.43+0.0j;
	nominal_voltage 7967.43;
};

object meter {
	phases AN;
	nominal_voltage 7967.43;
	name R4-12-47-1_meter_30;
	voltage_A 7967.43+0.0j;
};

object meter {
	phases ABCN;
	name R4-12-47-1_meter_31;
	voltage_B -3983.72-6900j;
	voltage_C -3983.72+6900j;
	voltage_A 7967.43+0.0j;
	nominal_voltage 7967.43;
};

object meter {
	voltage_C -3983.72+6900j;
	phases CN;
	nominal_voltage 7967.43;
	name R4-12-47-1_meter_32;
};

object meter {
	voltage_C -3983.72+6900j;
	phases CN;
	nominal_voltage 7967.43;
	name R4-12-47-1_meter_33;
};

object meter {
	phases ACN;
	name R4-12-47-1_meter_34;
	voltage_C -3983.72+6900j;
	voltage_A 7967.43+0.0j;
	nominal_voltage 7967.43;
};

object meter {
	phases ABCN;
	name R4-12-47-1_meter_35;
	voltage_B -3983.72-6900j;
	voltage_C -3983.72+6900j;
	voltage_A 7967.43+0.0j;
	nominal_voltage 7967.43;
};

object meter {
	voltage_C -3983.72+6900j;
	phases CN;
	nominal_voltage 7967.43;
	name R4-12-47-1_meter_36;
};

object meter {
	voltage_C -3983.72+6900j;
	phases CN;
	nominal_voltage 7967.43;
	name R4-12-47-1_meter_37;
};

object meter {
	voltage_C -3983.72+6900j;
	phases CN;
	nominal_voltage 7967.43;
	name R4-12-47-1_meter_38;
};

object meter {
	phases ABCN;
	name R4-12-47-1_meter_39;
	voltage_B -3983.72-6900j;
	voltage_C -3983.72+6900j;
	voltage_A 7967.43+0.0j;
	nominal_voltage 7967.43;
};

object meter {
	voltage_B -3983.72-6900j;
	phases BN;
	nominal_voltage 7967.43;
	name R4-12-47-1_meter_40;
};

object meter {
	phases ABCN;
	name R4-12-47-1_meter_41;
	voltage_B -3983.72-6900j;
	voltage_C -3983.72+6900j;
	voltage_A 7967.43+0.0j;
	nominal_voltage 7967.43;
};

object meter {
	phases AN;
	nominal_voltage 7967.43;
	name R4-12-47-1_meter_42;
	voltage_A 7967.43+0.0j;
};

object meter {
	phases AN;
	nominal_voltage 7967.43;
	name R4-12-47-1_meter_43;
	voltage_A 7967.43+0.0j;
};

object meter {
	phases ABCN;
	name R4-12-47-1_meter_44;
	voltage_B -3983.72-6900j;
	voltage_C -3983.72+6900j;
	voltage_A 7967.43+0.0j;
	nominal_voltage 7967.43;
};

object meter {
	voltage_B -3983.72-6900j;
	phases BN;
	nominal_voltage 7967.43;
	name R4-12-47-1_meter_45;
};

object meter {
	voltage_C -3983.72+6900j;
	phases CN;
	nominal_voltage 7967.43;
	name R4-12-47-1_meter_46;
};

object meter {
	phases ABCN;
	name R4-12-47-1_meter_47;
	voltage_B -3983.72-6900j;
	voltage_C -3983.72+6900j;
	voltage_A 7967.43+0.0j;
	nominal_voltage 7967.43;
};

object meter {
	phases ABCN;
	name R4-12-47-1_meter_48;
	voltage_B -3983.72-6900j;
	voltage_C -3983.72+6900j;
	voltage_A 7967.43+0.0j;
	nominal_voltage 7967.43;
};

object meter {
	phases ABCN;
	name R4-12-47-1_meter_49;
	voltage_B -3983.72-6900j;
	voltage_C -3983.72+6900j;
	voltage_A 7967.43+0.0j;
	nominal_voltage 7967.43;
};

object meter {
	phases BCN;
	name R4-12-47-1_meter_50;
	voltage_B -3983.72-6900j;
	voltage_C -3983.72+6900j;
	nominal_voltage 7967.43;
};

object meter {
	phases BCN;
	name R4-12-47-1_meter_51;
	voltage_B -3983.72-6900j;
	voltage_C -3983.72+6900j;
	nominal_voltage 7967.43;
};

object meter {
	phases ABN;
	name R4-12-47-1_meter_52;
	voltage_B -3983.72-6900j;
	voltage_A 7967.43+0.0j;
	nominal_voltage 7967.43;
};

object meter {
	phases ABCN;
	name R4-12-47-1_meter_53;
	voltage_B -3983.72-6900j;
	voltage_C -3983.72+6900j;
	voltage_A 7967.43+0.0j;
	nominal_voltage 7967.43;
};

object meter {
	phases ABCN;
	name R4-12-47-1_meter_54;
	voltage_B -3983.72-6900j;
	voltage_C -3983.72+6900j;
	voltage_A 7967.43+0.0j;
	nominal_voltage 7967.43;
};

object meter {
	voltage_B -3983.72-6900j;
	phases BN;
	nominal_voltage 7967.43;
	name R4-12-47-1_meter_55;
};

object meter {
	voltage_C -3983.72+6900j;
	phases CN;
	nominal_voltage 7967.43;
	name R4-12-47-1_meter_56;
};

object meter {
	phases ABCN;
	name R4-12-47-1_meter_57;
	voltage_B -3983.72-6900j;
	voltage_C -3983.72+6900j;
	voltage_A 7967.43+0.0j;
	nominal_voltage 7967.43;
};

object meter {
	phases ABCN;
	name R4-12-47-1_meter_58;
	voltage_B -3983.72-6900j;
	voltage_C -3983.72+6900j;
	voltage_A 7967.43+0.0j;
	nominal_voltage 7967.43;
};

object meter {
	voltage_B -3983.72-6900j;
	phases BN;
	nominal_voltage 7967.43;
	name R4-12-47-1_meter_59;
};

object meter {
	phases AN;
	nominal_voltage 7967.43;
	name R4-12-47-1_meter_60;
	voltage_A 7967.43+0.0j;
};

object meter {
	voltage_C -3983.72+6900j;
	phases CN;
	nominal_voltage 7967.43;
	name R4-12-47-1_meter_61;
};

object meter {
	phases AN;
	nominal_voltage 7967.43;
	name R4-12-47-1_meter_62;
	voltage_A 7967.43+0.0j;
};

object meter {
	phases ABCN;
	name R4-12-47-1_meter_63;
	voltage_B -3983.72-6900j;
	voltage_C -3983.72+6900j;
	voltage_A 7967.43+0.0j;
	nominal_voltage 7967.43;
};

object meter {
	phases ABCN;
	name R4-12-47-1_meter_64;
	voltage_B -3983.72-6900j;
	voltage_C -3983.72+6900j;
	voltage_A 7967.43+0.0j;
	nominal_voltage 7967.43;
};

object meter {
	phases ABCN;
	name R4-12-47-1_meter_65;
	voltage_B -3983.72-6900j;
	voltage_C -3983.72+6900j;
	voltage_A 7967.43+0.0j;
	nominal_voltage 7967.43;
};

object meter {
	voltage_B -3983.72-6900j;
	phases BN;
	nominal_voltage 7967.43;
	name R4-12-47-1_meter_66;
};

object meter {
	voltage_B -3983.72-6900j;
	phases BN;
	nominal_voltage 7967.43;
	name R4-12-47-1_meter_67;
};

object meter {
	phases BCN;
	name R4-12-47-1_meter_68;
	voltage_B -3983.72-6900j;
	voltage_C -3983.72+6900j;
	nominal_voltage 7967.43;
};

object meter {
	voltage_B -3983.72-6900j;
	phases BN;
	nominal_voltage 7967.43;
	name R4-12-47-1_meter_69;
};

object meter {
	phases ABCN;
	name R4-12-47-1_meter_70;
	voltage_B -3983.72-6900j;
	voltage_C -3983.72+6900j;
	voltage_A 7967.43+0.0j;
	nominal_voltage 7967.43;
};

object meter {
	phases ABN;
	name R4-12-47-1_meter_71;
	voltage_B -3983.72-6900j;
	voltage_A 7967.43+0.0j;
	nominal_voltage 7967.43;
};

object meter {
	voltage_C -3983.72+6900j;
	phases CN;
	nominal_voltage 7967.43;
	name R4-12-47-1_meter_72;
};

object meter {
	phases AN;
	nominal_voltage 7967.43;
	name R4-12-47-1_meter_73;
	voltage_A 7967.43+0.0j;
};

object meter {
	phases ABCN;
	name R4-12-47-1_meter_74;
	voltage_B -3983.72-6900j;
	voltage_C -3983.72+6900j;
	voltage_A 7967.43+0.0j;
	nominal_voltage 7967.43;
};

object meter {
	voltage_C -3983.72+6900j;
	phases CN;
	nominal_voltage 7967.43;
	name R4-12-47-1_meter_75;
};

object meter {
	phases ABCN;
	name R4-12-47-1_meter_76;
	voltage_B -3983.72-6900j;
	voltage_C -3983.72+6900j;
	voltage_A 7967.43+0.0j;
	nominal_voltage 7967.43;
};

object node {
	phases BN;
	name R4-12-47-1_node_1;
	voltage_B -3983.72-6900j;
	nominal_voltage 7967.43;
};

object node {
	voltage_C -3983.72+6900j;
	phases CN;
	nominal_voltage 7967.43;
	name R4-12-47-1_node_2;
};

object node {
	phases ABCN;
	name R4-12-47-1_node_3;
	voltage_B -3983.72-6900j;
	voltage_C -3983.72+6900j;
	voltage_A 7967.43+0.0j;
	nominal_voltage 7967.43;
};

object node {
	phases ABCN;
	name R4-12-47-1_node_4;
	voltage_B -3983.72-6900j;
	voltage_C -3983.72+6900j;
	voltage_A 7967.43+0.0j;
	nominal_voltage 7967.43;
};

object node {
	phases ABCN;
	name R4-12-47-1_node_5;
	voltage_B -3983.72-6900j;
	voltage_C -3983.72+6900j;
	voltage_A 7967.43+0.0j;
	nominal_voltage 7967.43;
};

object node {
	voltage_C -3983.72+6900j;
	phases CN;
	nominal_voltage 7967.43;
	name R4-12-47-1_node_6;
};

object node {
	voltage_C -3983.72+6900j;
	phases CN;
	nominal_voltage 7967.43;
	name R4-12-47-1_node_7;
};

object node {
	phases ABCN;
	name R4-12-47-1_node_8;
	voltage_B -3983.72-6900j;
	voltage_C -3983.72+6900j;
	voltage_A 7967.43+0.0j;
	nominal_voltage 7967.43;
};

object node {
	phases ABCN;
	name R4-12-47-1_node_9;
	voltage_B -3983.72-6900j;
	voltage_C -3983.72+6900j;
	voltage_A 7967.43+0.0j;
	nominal_voltage 7967.43;
};

object node {
	voltage_C -3983.72+6900j;
	phases CN;
	nominal_voltage 7967.43;
	name R4-12-47-1_node_10;
};

object node {
	phases ABCN;
	name R4-12-47-1_node_11;
	voltage_B -3983.72-6900j;
	voltage_C -3983.72+6900j;
	voltage_A 7967.43+0.0j;
	nominal_voltage 7967.43;
};

object node {
	voltage_B -3983.72-6900j;
	phases BN;
	nominal_voltage 7967.43;
	name R4-12-47-1_node_12;
};

object node {
	voltage_C -3983.72+6900j;
	phases CN;
	nominal_voltage 7967.43;
	name R4-12-47-1_node_13;
};

object node {
	phases ABCN;
	name R4-12-47-1_node_14;
	voltage_B -3983.72-6900j;
	voltage_C -3983.72+6900j;
	voltage_A 7967.43+0.0j;
	nominal_voltage 7967.43;
};

object node {
	voltage_C -3983.72+6900j;
	phases CN;
	nominal_voltage 7967.43;
	name R4-12-47-1_node_15;
};

object node {
	voltage_B -3983.72-6900j;
	phases BN;
	nominal_voltage 7967.43;
	name R4-12-47-1_node_16;
};

object node {
	phases ABCN;
	name R4-12-47-1_node_17;
	voltage_B -3983.72-6900j;
	voltage_C -3983.72+6900j;
	voltage_A 7967.43+0.0j;
	nominal_voltage 7967.43;
};

object node {
	voltage_C -3983.72+6900j;
	phases CN;
	nominal_voltage 7967.43;
	name R4-12-47-1_node_18;
};

object node {
	phases ABCN;
	name R4-12-47-1_node_19;
	voltage_B -3983.72-6900j;
	voltage_C -3983.72+6900j;
	voltage_A 7967.43+0.0j;
	nominal_voltage 7967.43;
};

object node {
	voltage_B -3983.72-6900j;
	phases BN;
	nominal_voltage 7967.43;
	name R4-12-47-1_node_20;
};

object node {
	phases ABCN;
	name R4-12-47-1_node_21;
	voltage_B -3983.72-6900j;
	voltage_C -3983.72+6900j;
	voltage_A 7967.43+0.0j;
	nominal_voltage 7967.43;
};

object node {
	phases ABCN;
	name R4-12-47-1_node_22;
	voltage_B -3983.72-6900j;
	voltage_C -3983.72+6900j;
	voltage_A 7967.43+0.0j;
	nominal_voltage 7967.43;
};

object node {
	phases ABCN;
	name R4-12-47-1_node_23;
	voltage_B -3983.72-6900j;
	voltage_C -3983.72+6900j;
	voltage_A 7967.43+0.0j;
	nominal_voltage 7967.43;
};

object node {
	phases AN;
	nominal_voltage 7967.43;
	name R4-12-47-1_node_24;
	voltage_A 7967.43+0.0j;
};

object node {
	phases AN;
	nominal_voltage 7967.43;
	name R4-12-47-1_node_25;
	voltage_A 7967.43+0.0j;
};

object node {
	phases ACN;
	name R4-12-47-1_node_26;
	voltage_C -3983.72+6900j;
	voltage_A 7967.43+0.0j;
	nominal_voltage 7967.43;
};

object node {
	phases ACN;
	name R4-12-47-1_node_27;
	voltage_C -3983.72+6900j;
	voltage_A 7967.43+0.0j;
	nominal_voltage 7967.43;
};

object node {
	voltage_C -3983.72+6900j;
	phases CN;
	nominal_voltage 7967.43;
	name R4-12-47-1_node_28;
};

object node {
	voltage_C -3983.72+6900j;
	phases CN;
	nominal_voltage 7967.43;
	name R4-12-47-1_node_29;
};

object node {
	voltage_C -3983.72+6900j;
	phases CN;
	nominal_voltage 7967.43;
	name R4-12-47-1_node_30;
};

object node {
	voltage_C -3983.72+6900j;
	phases CN;
	nominal_voltage 7967.43;
	name R4-12-47-1_node_31;
};

object node {
	phases ABCN;
	name R4-12-47-1_node_32;
	voltage_B -3983.72-6900j;
	voltage_C -3983.72+6900j;
	voltage_A 7967.43+0.0j;
	nominal_voltage 7967.43;
};

object node {
	phases ABN;
	name R4-12-47-1_node_33;
	voltage_B -3983.72-6900j;
	voltage_A 7967.43+0.0j;
	nominal_voltage 7967.43;
};

object node {
	phases ABCN;
	name R4-12-47-1_node_34;
	voltage_B -3983.72-6900j;
	voltage_C -3983.72+6900j;
	voltage_A 7967.43+0.0j;
	nominal_voltage 7967.43;
};

object node {
	phases AN;
	nominal_voltage 7967.43;
	name R4-12-47-1_node_35;
	voltage_A 7967.43+0.0j;
};

object node {
	phases ABCN;
	name R4-12-47-1_node_36;
	voltage_B -3983.72-6900j;
	voltage_C -3983.72+6900j;
	voltage_A 7967.43+0.0j;
	nominal_voltage 7967.43;
};

object node {
	phases ABCN;
	name R4-12-47-1_node_37;
	voltage_B -3983.72-6900j;
	voltage_C -3983.72+6900j;
	voltage_A 7967.43+0.0j;
	nominal_voltage 7967.43;
};

object node {
	phases ABCN;
	name R4-12-47-1_node_38;
	voltage_B -3983.72-6900j;
	voltage_C -3983.72+6900j;
	voltage_A 7967.43+0.0j;
	nominal_voltage 7967.43;
};

object node {
	phases ABCN;
	name R4-12-47-1_node_39;
	voltage_B -3983.72-6900j;
	voltage_C -3983.72+6900j;
	voltage_A 7967.43+0.0j;
	nominal_voltage 7967.43;
};

object node {
	phases ABCN;
	name R4-12-47-1_node_40;
	voltage_B -3983.72-6900j;
	voltage_C -3983.72+6900j;
	voltage_A 7967.43+0.0j;
	nominal_voltage 7967.43;
};

object node {
	phases AN;
	nominal_voltage 7967.43;
	name R4-12-47-1_node_41;
	voltage_A 7967.43+0.0j;
};

object node {
	voltage_B -3983.72-6900j;
	phases BN;
	nominal_voltage 7967.43;
	name R4-12-47-1_node_42;
};

object node {
	voltage_B -3983.72-6900j;
	phases BN;
	nominal_voltage 7967.43;
	name R4-12-47-1_node_43;
};

object node {
	voltage_B -3983.72-6900j;
	phases BN;
	nominal_voltage 7967.43;
	name R4-12-47-1_node_44;
};

object node {
	phases ABCN;
	name R4-12-47-1_node_45;
	voltage_B -3983.72-6900j;
	voltage_C -3983.72+6900j;
	voltage_A 7967.43+0.0j;
	nominal_voltage 7967.43;
};

object node {
	phases ABCN;
	name R4-12-47-1_node_46;
	voltage_B -3983.72-6900j;
	voltage_C -3983.72+6900j;
	voltage_A 7967.43+0.0j;
	nominal_voltage 7967.43;
};

object node {
	phases ACN;
	name R4-12-47-1_node_47;
	voltage_C -3983.72+6900j;
	voltage_A 7967.43+0.0j;
	nominal_voltage 7967.43;
};

object node {
	phases AN;
	nominal_voltage 7967.43;
	name R4-12-47-1_node_48;
	voltage_A 7967.43+0.0j;
};

object node {
	phases AN;
	nominal_voltage 7967.43;
	name R4-12-47-1_node_49;
	voltage_A 7967.43+0.0j;
};

object node {
	phases ABCN;
	name R4-12-47-1_node_50;
	voltage_B -3983.72-6900j;
	voltage_C -3983.72+6900j;
	voltage_A 7967.43+0.0j;
	nominal_voltage 7967.43;
};

object node {
	phases ACN;
	name R4-12-47-1_node_51;
	voltage_C -3983.72+6900j;
	voltage_A 7967.43+0.0j;
	nominal_voltage 7967.43;
};

object node {
	phases BCN;
	name R4-12-47-1_node_52;
	voltage_B -3983.72-6900j;
	voltage_C -3983.72+6900j;
	nominal_voltage 7967.43;
};

object node {
	voltage_C -3983.72+6900j;
	phases CN;
	nominal_voltage 7967.43;
	name R4-12-47-1_node_53;
};

object node {
	phases AN;
	nominal_voltage 7967.43;
	name R4-12-47-1_node_54;
	voltage_A 7967.43+0.0j;
};

object node {
	phases AN;
	nominal_voltage 7967.43;
	name R4-12-47-1_node_55;
	voltage_A 7967.43+0.0j;
};

object node {
	voltage_C -3983.72+6900j;
	phases CN;
	nominal_voltage 7967.43;
	name R4-12-47-1_node_56;
};

object node {
	phases AN;
	nominal_voltage 7967.43;
	name R4-12-47-1_node_57;
	voltage_A 7967.43+0.0j;
};

object node {
	phases AN;
	nominal_voltage 7967.43;
	name R4-12-47-1_node_58;
	voltage_A 7967.43+0.0j;
};

object node {
	phases AN;
	nominal_voltage 7967.43;
	name R4-12-47-1_node_59;
	voltage_A 7967.43+0.0j;
};

object node {
	phases AN;
	nominal_voltage 7967.43;
	name R4-12-47-1_node_60;
	voltage_A 7967.43+0.0j;
};

object node {
	voltage_C -3983.72+6900j;
	phases CN;
	nominal_voltage 7967.43;
	name R4-12-47-1_node_61;
};

object node {
	voltage_B -3983.72-6900j;
	phases BN;
	nominal_voltage 7967.43;
	name R4-12-47-1_node_62;
};

object node {
	voltage_B -3983.72-6900j;
	phases BN;
	nominal_voltage 7967.43;
	name R4-12-47-1_node_63;
};

object node {
	voltage_C -3983.72+6900j;
	phases CN;
	nominal_voltage 7967.43;
	name R4-12-47-1_node_64;
};

object node {
	voltage_B -3983.72-6900j;
	phases BN;
	nominal_voltage 7967.43;
	name R4-12-47-1_node_65;
};

object node {
	voltage_C -3983.72+6900j;
	phases CN;
	nominal_voltage 7967.43;
	name R4-12-47-1_node_66;
};

object node {
	voltage_C -3983.72+6900j;
	phases CN;
	nominal_voltage 7967.43;
	name R4-12-47-1_node_67;
};

object node {
	voltage_C -3983.72+6900j;
	phases CN;
	nominal_voltage 7967.43;
	name R4-12-47-1_node_68;
};

object node {
	phases AN;
	nominal_voltage 7967.43;
	name R4-12-47-1_node_69;
	voltage_A 7967.43+0.0j;
};

object node {
	voltage_C -3983.72+6900j;
	phases CN;
	nominal_voltage 7967.43;
	name R4-12-47-1_node_70;
};

object node {
	voltage_C -3983.72+6900j;
	phases CN;
	nominal_voltage 7967.43;
	name R4-12-47-1_node_71;
};

object node {
	voltage_C -3983.72+6900j;
	phases CN;
	nominal_voltage 7967.43;
	name R4-12-47-1_node_72;
};

object node {
	voltage_C -3983.72+6900j;
	phases CN;
	nominal_voltage 7967.43;
	name R4-12-47-1_node_73;
};

object node {
	voltage_B -3983.72-6900j;
	phases BN;
	nominal_voltage 7967.43;
	name R4-12-47-1_node_74;
};

object node {
	voltage_B -3983.72-6900j;
	phases BN;
	nominal_voltage 7967.43;
	name R4-12-47-1_node_75;
};

object node {
	phases ABCN;
	name R4-12-47-1_node_76;
	voltage_B -3983.72-6900j;
	voltage_C -3983.72+6900j;
	voltage_A 7967.43+0.0j;
	nominal_voltage 7967.43;
};

object node {
	voltage_B -3983.72-6900j;
	phases BN;
	nominal_voltage 7967.43;
	name R4-12-47-1_node_77;
};

object node {
	voltage_B -3983.72-6900j;
	phases BN;
	nominal_voltage 7967.43;
	name R4-12-47-1_node_78;
};

object node {
	phases AN;
	nominal_voltage 7967.43;
	name R4-12-47-1_node_79;
	voltage_A 7967.43+0.0j;
};

object node {
	phases AN;
	nominal_voltage 7967.43;
	name R4-12-47-1_node_80;
	voltage_A 7967.43+0.0j;
};

object node {
	phases AN;
	nominal_voltage 7967.43;
	name R4-12-47-1_node_81;
	voltage_A 7967.43+0.0j;
};

object node {
	phases AN;
	nominal_voltage 7967.43;
...